#!/data/adb/modules/Fontchanger/bash
# Terminal Magisk Mod Template
# by veez21 @ xda-developers
# Modified by @xaffan - Telegram/XDA
# Help from @Zackptg5 - Telegram/XDA
# Variables
scriptver=10
branch=master

get_file_value() {
  if [ -f "$1" ]; then
    grep $2 $1 | sed "s|.*${2}||" | sed 's|\"||g'
  fi
}

MAGISKVERCODE=$(echo $(get_file_value /data/adb/magisk/util_functions.sh "MAGISK_VER_CODE=") | sed 's|-.*||')

OLDPATH=$PATH
MODID=Fontchanger
MODPATH=/sbin/.magisk/modules/$MODID
MODPROP=$MODPATH/module.prop
SDCARD=/storage/emulated/0
FCDIR=$SDCARD/Fontchanger
TMPLOG=Fontchanger_logs.log
TMPLOGLOC=$FCDIR/logs
XZLOG=$TMPLOGLOC/Fontchanger_logs.zip
#if [ -d /cache ]; then CACHELOC=/cache; else CACHELOC=/data/cache; fi       
CFONT=$MODPATH/currentfont.txt
CEMOJI=$MODPATH/currentemoji.txt
MIRROR=/sbin/.magisk/mirror


CURL=$MODPATH/curl
SLEEP=$MODPATH/sleep
#alias xmlstarlet=$MODPATH/xmlstarlet
ZIP=$MODPATH/zip

if [ -z "$(echo -e $PATH | grep /sbin:)" ]; then
 alias resetprop="/data/adb/magisk/magisk resetprop"
fi

#=========================== Set Log Files
#mount -o remount,rw $CACHELOC 2>/dev/null
#mount -o rw,remount $CACHELOC 2>/dev/null
# > Logs should go in this file
LOG=$TMPLOGLOC/${MODID}.log
oldLOG=$TMPLOGLOC/${MODID}-old.log
# > Verbose output goes here
VERLOG=$TMPLOGLOC/${MODID}-verbose.log
oldVERLOG=$TMPLOGLOC/${MODID}-verbose-old.log
stdoutLOG=$TMPDIRLOC/$MODID-STDOUT.log
oldstdoutLOG=$TMPDIRLOC/$MODID-STDOUT-old.log


# Start Logging verbosely
mv -f $VERLOG $oldVERLOG 2>/dev/null
exec 2>$VERLOG
set -x 2>&1 >/dev/null



# Variables:
#  BBok - If busybox detection was ok (true/false)
#  _bb - Busybox binary directory
#  _bbname - Busybox name

# set_busybox <busybox binary>
# alias busybox applets
set_busybox() {
  if [ -x "$1" ]; then
    for i in $(${1} --list); do
      if [ "$i" != 'echo' ] || [ "$i" != 'zip' ] || [ "$1" != 'sleep' ]; then
        alias "$i"="${1} $i" >/dev/null 2>&1
      fi
    done
    _busybox=true
    _bb=$1
  fi
}
_busybox=false

if $_busybox; then
  true
elif [ -d /sbin/.magisk/modules/busybox-ndk ]; then
  BUSY=$(find /sbin/.magisk/modules/busybox-ndk/system/* -maxdepth 0 | sed 's#.*/##')
  for i in $BUSY; do
    PATH=/sbin/.magisk/modules/busybox-ndk/system/$i:$PATH
    _bb=/sbin/.magisk/modules/busybox-ndk/system/$i/busybox
    BBox=true
  done
elif [ -f /sbin/.magisk/modules/ccbins/system/bin/busybox ]; then
  PATH=/sbin/.magisk/modules/ccbins/system/bin:$PATH
  _bb=/sbin/.magisk/modules/ccbins/system/bin/busybox
  BBox=true
elif [ -f /sbin/.magisk/modules/ccbins/system/xbin/busybox ]; then
  PATH=/sbin/.magisk/modules/ccbins/system/xbin:$PATH
  _bb=/sbin/.magisk/modules/ccbins/system/xbin/busybox
  BBox=true
elif [ -d /sbin/.magisk/busybox ]; then
  PATH=/sbin/.magisk/busybox:$PATH
  _bb=/sbin/.magisk/busybox/busybox
  BBox=true
elif [ -f $MODPATH/busybox ]; then
  PATH=$MODPATH/busybox:$PATH
  _bb=$MODPATH/busybox
  BBox=true
fi

set_busybox $_bb
[ $? -ne 0 ] && exit $?
[ -n "$ANDROID_SOCKET_adbd" ] && alias clear='echo'
_bbname="$($_bb | head -n1 | awk '{print $1,$2}')"
if [ "$_bbname" == "" ]; then
  _bbname="BusyBox not found!"
  BBox=false
fi

quit() {
  PATH=$OLDPATH
  exit $?
}

get_var() { 
  sed -n 's/^name=//p' ${1}; 
}

_name=$(basename $0)
ls /data >/dev/null 2>&1 || { echo "$MODID needs to run as root!"; echo "type 'su' then '$_name'"; quit 1; }

# Load magisk stuff
if [ -f /data/adb/magisk/util_functions.sh ]; then
  . /data/adb/magisk/util_functions.sh
elif [ -f /data/magisk/util_functions.sh ]; then
  . /data/magisk/util_functions.sh
else
  echo "! Can't find magisk util_functions! Aborting!"; exit 1
fi

# Load Needed Functions
if [ -e $MODPATH/${MODID}-functions.sh ]; then
  . $MODPATH/${MODID}-functions.sh
else
  echo "! Can't find functions script! Aborting!"; exit 1
fi

MODULESPATH=/sbin/.magisk/modules
setabort=0
for i in "$MODULESPATH"*/*; do
  if [[ $i != *Fontchanger ]] && [ ! -f $i/disable ] && [ -d $i/system/fonts ]; then
    NAME=$(get_var $i/module.prop)
    ui_print " [!] "
    ui_print " [!] Module editing fonts detected [!] "
    ui_print " [!] Module - $NAME [!] "
    ui_print " [!] "
    setabort=1
  fi
done
if [[ $setabort == 1 ]]; then
  ui_print " [!] Remove all Conflicting Font Modules before Continuing [!] "
  abort
fi

# Functions
# Set Permissions
set_perm() {
  chown $2:$3 $1 || return 1
  chmod $4 $1 || return 1
  (if [ -z $5 ]; then
    case $1 in
      *"system/vendor/app/"*) chcon 'u:object_r:vendor_app_file:s0' $1;;
      *"system/vendor/etc/"*) chcon 'u:object_r:vendor_configs_file:s0' $1;;
      *"system/vendor/overlay/"*) chcon 'u:object_r:vendor_overlay_file:s0' $1;;
      *"system/vendor/"*) chcon 'u:object_r:vendor_file:s0' $1;;
      *) chcon 'u:object_r:system_file:s0' $1;;
    esac
  else
    chcon $5 $1
  fi) || return 1
}

# Abort
abort() {
  echo "$1"
  exit 1
}

magisk_version() {
if grep MAGISK_VER /data/adb/magisk/util_functions.sh; then
  echo "$MAGISK_VERSION $MAGISK_VERSIONCODE" >> $LOG 2>&1
else
  echo "Magisk not installed" >> $LOG 2>&1
fi
}

# Device Info
# BRAND MODEL DEVICE API ABI ABI2 ABILONG ARCH
BRAND=$(getprop ro.product.brand)
MODEL=$(getprop ro.product.model)
DEVICE=$(getprop ro.product.device)
ROM=$(getprop ro.build.display.id)
api_level_arch_detect
# Version Number
VER=$(get_file_value $MODPROP "version=" | sed 's|-.*||')
# Version Code
REL=$(get_file_value $MODPROP "versionCode=" | sed 's|-.*||')
# Author
AUTHOR=$(get_file_value $MODPROP "author=" | sed 's|-.*||')
# Mod Name/Title
MODTITLE=$(get_file_value $MODPROP "name=" | sed 's|-.*||')
#Grab Magisk Version
MAGISK_VERSION=$(get_file_value /data/adb/magisk/util_functions.sh "MAGISK_VER=" | sed 's|-.*||')

# Colors
G='\e[01;32m'  # GREEN TEXT
R='\e[01;31m'  # RED TEXT
Y='\e[01;33m'  # YELLOW TEXT
B='\e[01;34m'  # BLUE TEXT
V='\e[01;35m'  # VIOLET TEXT
Bl='\e[01;30m'  # BLACK TEXT
C='\e[01;36m'  # CYAN TEXT
W='\e[01;37m'  # WHITE TEXT
BGBL='\e[1;30;47m' # Background W Text Bl
N='\e[0m'   # How to use (example): echo -e "${G}example${N}"
loadBar=' '   # Load UI
# Remove color codes if -nc or in ADB Shell
[ -n "$1" -a "$1" == "-nc" ] && shift && NC=true
[ "$NC" -o -n "$ANDROID_SOCKET_adbd" ] && {
  G=''; R=''; Y=''; B=''; V=''; Bl=''; C=''; W=''; N=''; BGBL=''; loadBar='=';
}

# No. of characters in $MODTITLE, $VER, and $REL
character_no=$(echo "$MODTITLE $VER $REL" | wc -c)

# Divider
div="${Bl}$(printf '%*s' "${character_no}" '' | tr " " "=")${N}"

# title_div [-c] <title>
# based on $div with <title>
title_div() {
  [ "$1" == "-c" ] && local character_no=$2 && shift 2
  [ -z "$1" ] && { local message=; no=0; } || { local message="$@ "; local no=$(echo "$@" | wc -c); }
  [ $character_no -gt $no ] && local extdiv=$((character_no-no)) || { echo "Invalid!"; return; }
  echo -e "${W}$message${N}${Bl}$(printf '%*s' "$extdiv" '' | tr " " "=")${N}"
}

# set_file_prop <property> <value> <prop.file>
set_file_prop() {
if [ -f "$3" ]; then
  if grep -q "$1=" "$3"; then
    sed -i "s/${1}=.*/${1}=${2}/g" "$3"
  else
    echo "$1=$2" >> "$3"
  fi
else
  echo "$3 doesn't exist!"
fi
}

# https://github.com/fearside/ProgressBar
# ProgressBar <progress> <total>
ProgressBar() {
# Determine Screen Size
  if [[ "$COLUMNS" -le "57" ]]; then
    local var1=2
	  local var2=20
  else
    local var1=4
    local var2=40
  fi
# Process data
  local _progress=$(((${1}*100/${2}*100)/100))
  local _done=$(((${_progress}*${var1})/10))
  local _left=$((${var2}-$_done))
# Build progressbar string lengths
  local _done=$(printf "%${_done}s")
  local _left=$(printf "%${_left}s")

# Build progressbar strings and print the ProgressBar line
printf "\rProgress : ${BGBL}|${N}${_done// /${BGBL}$loadBar${N}}${_left// / }${BGBL}|${N} ${_progress}%%"
}

#https://github.com/fearside/SimpleProgressSpinner
# Spinner <message>
Spinner() {

# Choose which character to show.
case ${_indicator} in
  "|") _indicator="/";;
  "/") _indicator="-";;
  "-") _indicator="\\";;
  "\\") _indicator="|";;
  # Initiate spinner character
  *) _indicator="\\";;
esac

# Print simple progress spinner
printf "\r${@} [${_indicator}]"
}

# cmd & spinner <message>
e_spinner() {
  PID=$!
  h=0; anim='-\|/';
  while [ -d /proc/$PID ]; do
    h=$(((h+1)%4))
    $SLEEP 0.02
    printf "\r${@} [${anim:$h:1}]"
  done
}                                                                       

# test_connection
# tests if there's internet connection
test_connection() {
  (ping -q -c 1 -W 1 google.com >/dev/null 2>&1 & e_spinner " [-] Testing Internet Connection") && echo " [-] Internet Detected [-] "; CON1=true; CON2=false || { abort " [-] Error, No Internet Connection [-] "; CON1=false CON2=false; }
}

test_connection2() {
  case "$($CURL -s --max-time 2 -I http://google.com | sed 's/^[^ ]*  *\([0-9]\).*/\1/; 1q')" in
  [23]) echo " [-] HTTP connectivity is up [-] "
    CON1=false
    CON2=true
    ;;
  5) echo " [!] The web proxy won't let us through [!] "
    CON1=false
    CON2=false
    ;;
  *) echo " [!] The network is down or very slow [!] "
    CON1=false
    CON2=false
    ;;
  esac
}

# Log files will be uploaded to termbin.com
# Logs included: VERLOG LOG oldVERLOG oldLOG
upload_logs() {
  $BBox && {
  test_connection
  [[ "$CON1" == "true" ]] || test_connection2
  [[ "$CON2" == "true" ]] || abort " [!] Internet Connection is Needed... [!]"
  if "$CON1" || "$CON2"; then
    echo -e "Uploading logs"
    [ -s $VERLOG ] && verUp=$(cat $VERLOG | nc termbin.com 9999) || verUp=none
    [ -s $oldVERLOG ] && oldverUp=$(cat $oldVERLOG | nc termbin.com 9999) || oldverUp=none
    [ -s $LOG ] && logUp=$(cat $LOG | nc termbin.com 9999) || logUp=none
    [ -s $oldLOG ] && oldlogUp=$(cat $oldLOG | nc termbin.com 9999) || oldlogUp=none
    [ -s $stdoutLOG ] && stdoutUp=$(cat $stdoutLOG | nc termbin.com 9999) || stdoutUp=none
    [ -s $oldstdoutLOG ] && oldstdoutUp=$(cat $oldstdoutLOG | nc termbin.com 9999) || oldstdoutUp=none
    [ -s $XZLOG ] && XZLOGUp=$(cat $XZLOG | nc termbin.com 9999) || XZLOGUp=none
    echo -e "Link: "
    echo -e "$MODEL ($DEVICE) API $API\n$ROM\n$ID\n
    O_Verbose: $oldverUp
    Verbose:   $verUp
    O_Log: $oldlogUp
    Log:   $logUp
    O_STDOUT:  $oldstdoutUp
    STDOUT:    $stdoutUp
    Zip: $XZLOGUp" | nc termbin.com 9999
    fi
  } || echo "Busybox not found!"
  exit
}

# Print Center
# Prints text in the center of terminal
pcenter() {
  local CHAR=$(printf "$@" | sed 's|\\e[[0-9;]*m||g' | wc -m)
  local hfCOLUMN=$((COLUMNS/2))
  local hfCHAR=$((CHAR/2))
  local indent=$((hfCOLUMN-hfCHAR))
  echo -e "$(printf '%*s' "${indent}" '') $@"
}

reboot(){
  setprop sys.powerctl reboot
}

# Heading
mod_head() {
  echo -e "$div"
  echo -e "${W}$MODTITLE $VER${N}(${Bl}$REL${N})"
  echo -e "by ${W}$AUTHOR${N}"
  echo -e "$div"
  echo -e "${R}$BRAND${N},${R}$MODEL${N},${R}$ROM${N}"
  echo -e "$div"
  echo -e "${W}BUSYBOX VERSION = ${N}${R} $_bbname${N}"
  echo -e "$div"
  echo -e "${W}MAGISK VERSION = ${N}${R} $MAGISK_VERSION${N}" 
  echo -e "$div"
  echo -e ""
}

if [ -f $MODPATH/.updated ]; then
  echo -e "${G}Fontchanger succesfully updated!${N}"
  oldver="$(cat $MODPATH/.updated)" newver="$scriptver"
  oldline=$(sed -n "/^$oldver/=" $MODPATH/.changelog) newline=$(sed -n "/^$newver/=" $MODPATH/.changelog)
  echo "Changelog: $(sed -n "/^$newver/p" $MODPATH/.changelog)"
  sed -n "$newline,$oldline p" $MODPATH/.changelog | sed -E '/^[0-9]|^$/d'
  echo " "
  sleep 2
  echo -e "${B}Please Press enter to continue ${N}"
  read -r enter
  case $enter in
    *) :
    ;;
  esac
fi

if $test_connection; then
  check_updates & e_spinner
  [ -f $MODPATH/.updated ] && { echo -e "\n${G} - Applying mod updates and restarting${N}"; font_changer && quit; } || echo -e "${B} - Fontchanger is up to date${N}"
else
  echo -e "${R} - No internet connection!${N}"
fi
#######################################################################################################
#                                        MENU                                                         #
#######################################################################################################
SKIPUP=0
menu() {
  choice=""
  fontchoice=""

  while [ "$choice" != "q" ]; do
    echo -e "$div"
    pcenter "${G} ___________________    ___________________________ ${N}"
    pcenter "${G} \_   _____/\_____  \   \      \__    ___/   _____/ ${N}"
    pcenter "${G}  |    __)   /   |   \  /   |   \|    |  \_____  \  ${N}"
    pcenter "${G}  |     \   /    |    \/    |    \    |  /        \ ${N}"
    pcenter "${G}  \___  /   \_______  /\____|__  /____| /_______  / ${N}"
    pcenter "${G}      \/            \/         \/               \/  ${N}"
    echo -e " "
    echo -e "$div"
    mod_head
    echo -e " "
    pcenter "${B}Welcome to Font Changer!${N}"
    echo -e " "
    if [[ $SKIPUP == 0 ]]; then
      echo -e "${G}Would You like to Update the Font List?${N}"
      echo -e " "
      echo -e "${G}Enter y or n${N}"
      echo -e " "
      echo -e "${B}[CHOOSE] : ${N}"
      echo -e " "
      read -r fontchoice
      case $(echo -e $fontchoice | tr '[:upper:]' '[:lower:]') in
        y)  
          echo -e "${Y}[!] Updating Font/Emoji/User Fonts Lists [!]${N}"
          echo -e " "
          echo -e "${Y}[!] Please Wait For the Update to Finish [!]${N}"
          update_lists
        ;;
        n)
          echo -e "${R}Skipping Font List Updating...${N}"
        ;;
      esac
    fi 
    FONT=$(get_file_value $CFONT CURRENT=)
    EMOJI=$(get_file_value $CEMOJI CURRENT=)
    if [ $FONT ]; then
      echo -e "${Y}[=] Current Font is $FONT [=]${N}"
    else
      echo -e "${R}[!] No Font Applied Yet [!]${N}"
    fi
    if [ $EMOJI ]; then
      echo -e "${Y}[=] Current Emoji is $EMOJI [=]${N}"
    else
      echo -e "${R}[!] No Emoji Applied Yet [!]${N}"
    fi
    echo -e "${B}[-] Select an Option...${N}"
    echo -e " "
    $SLEEP 1
    echo -e "${W}[1]${N} ${G} - Fonts${N}"
    echo -e " "
    echo -e "${W}[2]${N} ${G} - Emojis${N}"
    echo -e " "
    echo -e "${W}[3]${N} ${G} - Change to Stock Font or Emoji${N}"
    echo -e " "
    echo -e "${W}[4]${N} ${G} - Help${N}"
    echo -e " "
    echo -e "${W}[5]${N} ${G} - Take Logs${N}"
    echo -e " "
    echo -e "${W}[6]${N} ${G} - Delete Downloaded Zips to Clear Space${N}"
    echo -e " "
    echo -e "${W}[7]${N} ${G} - See Latest Changelog${N}"
    echo -e " "
    echo -e "${R}[Q] - Quit${N}"
    echo -e " "
    echo -e "${B}[CHOOSE] : ${N}"
    echo -e " "
    read -r choice
    case $(echo -e $choice | tr '[:upper:]' '[:lower:]') in
      1)
        echo -e "${Y}[-] Font Chooser Menu Selected...${N}"
        choose_font_menu
        break
      ;;
      2)
        echo -e "${R}[-] Emoji Menu Selected...${N}"
        choose_emoji_menu
        break
      ;;
      3)
        echo -e "${B}[-] Stock Font/Emoji Menu Selected...${N}"
        default_menu
        break
      ;;
      4)
        echo -e "${B}[-] Option Help Selected...${N}"
        choose_help_menu
      ;;
      5)
        log_print "${G}[-] Collecting logs and creating archive...${N}"
        magisk_version
        collect_logs
#        upload_logs
        echo -e "${G}[-] Upload $FCDIR/Fontchanger_logs.zip to the Telegram Group and Tag @xaffan${N}"
        quit
      ;;
      6)
        echo -e "${G}[-] Clear Downloaded Zips Selected...${N}"
        clear_menu
        break
      ;;
      7)
        echo -e "${B}[-] Changelog Selected...${N}"
        changelog_func
      ;;
      9999)
        hidden_menu
      ;;
      q)
        echo -e "${R}[-] Quiting...${N}"
        clear
        quit
      ;;
      *)
        echo -e "${Y}[!] Item Not Available! Try Again [!]${N}"
        $SLEEP 1.5
        clear
      ;;
    esac
  done
}

#######################################################################################################
#                                        SHORTCUTS                                                    #
#######################################################################################################
apply_font_shortcut() {
  choice2="$(grep -w $i $MODPATH/fontlist.txt | tr -d '[0-9]' | tr -d ' ')"
  echo -e "${B}Applying Font. Please Wait...${N}"
  $SLEEP 2
  if [ -d $MODPATH/system ] || [ -d $MODPATH/product ]; then
    for i in $MODPATH/*/*/*Emoji*.ttf; do
      if [ -e $i ]; then
        mv -f $i $MODPATH
      fi
    done
  fi
  if [ -d $MODPATH/system/product ]; then
    for i in $MODPATH/*/*/*/*Emoji*.ttf; do
      if [ -e $i ]; then
        mv -f $i $MODPATH
      fi
    done
  fi
  if [ -d $MODPATH/system/fonts ]; then
    rm -rf $MODPATH/system/fonts
  fi
  if [ -d $MODPATH/product/fonts ]; then
    rm -rf $MODPATH/product/fonts
  fi
  if [ -d $MODPATH/system/product/fonts ]; then
    rm -rf $MODPATH/system/product/fonts
  fi
  [ -e $FCDIR/Fonts/$choice2.zip ] || curl -k -o "$FCDIR/Fonts/$choice2.zip" https://john-fawkes.com/Downloads/haha/$choice2.zip
  mkdir -p $FCDIR/Fonts/$choice2
  unzip -o "$FCDIR/Fonts/$choice2.zip" -d $FCDIR/Fonts/$choice2 >&2 
  if [ -d $MIRROR/product/fonts ]; then
    mkdir -p $MODPATH/product/fonts
    cp -f $FCDIR/Fonts/$choice2/* $MODPATH/product/fonts
  fi
  if [ -d $MIRROR/system/product/fonts ]; then
    mkdir -p $MODPATH/system/product/fonts
    cp -f $FCDIR/Fonts/$choice2/* $MODPATH/system/product/fonts
  fi
  if [ -d $MIRROR/system/fonts ]; then
    mkdir -p $MODPATH/system/fonts
    cp -f $FCDIR/Fonts/$choice2/* $MODPATH/system/fonts
  fi
  for i in $MODPATH/*Emoji*.ttf; do
    if [ -e $i ]; then
      if [ -d $MIRROR/product/fonts ]; then
        mv -f $i $MODPATH/product/fonts
      fi
      if [ -d $MIRROR/system/product/fonts ]; then
        mv -f $i $MODPATH/system/product/fonts
      fi
      if [ -d $MIRROR/system/fonts ]; then
        mv -f $i $MODPATH/system/fonts
      fi
    fi
  done
  lg_device
  pixel
  samsung_device
  oxygen
  android10
  if [ -d $FCDIR/Fonts/$choice2 ]; then
    rm -rf $FCDIR/Fonts/$choice2
  fi
  if [ -d $MIRROR/product/fonts ]; then
    set_perm_recursive $MODPATH/product/fonts 0 0 0755 0644
  fi
  if [ -d $MIRROR/system/product/fonts ]; then
    set_perm_recursive $MODPATH/system/product/fonts 0 0 0755 0644
  fi
  if [ -d $MIRROR/system/fonts ]; then
    set_perm_recursive $MODPATH/system/fonts 0 0 0755 0644
  fi
  [ -f $CFONT ] || touch $CFONT
  truncate -s 0 $CFONT
  echo "CURRENT=$choice2" >> $CFONT
  if [ -d $MODPATH/product/fonts ]; then
    is_not_empty_font $MODPATH/product/fonts
  elif [ -d $MODPATH/system/product/fonts ]; then
    is_not_empty_font $MODPATH/system/product/fonts
  elif [ -d $MODPATH/system/fonts ]; then
    is_not_empty_font $MODPATH/system/fonts
  fi
}

apply_custom_font_shortcut() {
  echo -e "${Y}Applying Custom Font Please Wait...${N}"
  $SLEEP 2
  choice2="$(grep -w $i $MODPATH/customfontlist.txt | tr -d '[0-9]' | tr -d ' ')"
  cusfont=$(cat $MODPATH/listforcustom.txt)
  if [ -e $FCDIR/dump.txt ]; then
    truncate -s 0 $FCDIR/dump.txt
  else
    touch $FCDIR/dump.txt
  fi
  for j in "${cusfont[@]}" ; do
    if [ -e $FCDIR/Fonts/Custom/$choice2/$j ]; then
      echo "$j found" >> $FCDIR/dump.txt && echo "$j Found"
    fi
    if [ ! -e $FCDIR/Fonts/Custom/$choice2/$j ]; then
      echo "$j NOT FOUND" >> $FCDIR/dump.txt && echo "$j NOT FOUND"
    fi
  done
  if grep -wq "NOT FOUND" $FCDIR/dump.txt; then
    abort "Script Will Not Continue Until All ttf Files Exist!"
  fi
  PASSED=true
  if [ -d $MODPATH/system ] || [ -d $MODPATH/product ]; then
    for n in $MODPATH/*/*/*Emoji*.ttf; do
      if [ -e $n ]; then
        mv -f $n $MODPATH
      fi
    done
  fi
  if [ -d $MODPATH/system/product ]; then
    for p in $MODPATH/*/*/*/*Emoji*.ttf; do
      if [ -e $p ]; then
        mv -f $p $MODPATH
      fi
    done
  fi
  if [ -d $MODPATH/system/fonts ]; then
    rm -rf $MODPATH/system/fonts
  fi
  if [ -d $MODPATH/product/fonts ]; then
    rm -rf $MODPATH/product/fonts
  fi
  if [ -d $MODPATH/system/product/fonts ]; then
    rm -rf $MODPATH/system/product/fonts
  fi
  if [ -d $MIRROR/product/fonts ]; then
    mkdir -p $MODPATH/product/fonts
    cp -f $FCDIR/Fonts/Custom/$choice2/* $MODPATH/product/fonts/
  fi
  if [ -d $MIRROR/system/product/fonts ]; then
    mkdir -p $MODPATH/system/product/fonts
    cp -f $FCDIR/Fonts/Custom/$choice2/* $MODPATH/system/product/fonts/
  fi
  if [ -d $MIRROR/system/fonts ]; then
    mkdir -p $MODPATH/system/fonts
    cp -f $FCDIR/Fonts/Custom/$choice2/* $MODPATH/system/fonts/
  fi
  for r in $MODPATH/*Emoji*.ttf; do
    if [ -e $r ]; then
      if [ -d $MIRROR/product/fonts ]; then
        mv -f $r $MODPATH/product/fonts
      fi
      if [ -d $MIRROR/system/product/fonts ]; then
        mv -f $r $MODPATH/system/product/fonts
      fi
      if [ -d $MIRROR/system/fonts ]; then
        mv -f $r $MODPATH/system/fonts
      fi
    fi
  done
  lg_device
  pixel
  samsung_device
  oxygen
  android10
  if [ -d $MIRROR/product/fonts ]; then
    set_perm_recursive $MODPATH/product/fonts 0 0 0755 0644
  fi
  if [ -d $MIRROR/system/product/fonts ]; then
    set_perm_recursive $MODPATH/system/product/fonts 0 0 0755 0644
  fi
  if [ -d $MIRROR/system/fonts ]; then
    set_perm_recursive $MODPATH/system/fonts 0 0 0755 0644
  fi
  [ -f $CFONT ] || touch $CFONT
  truncate -s 0 $CFONT
  echo "CURRENT=$choice2" >> $CFONT
  if [ $PASSED == true ] && [ -d $MODPATH/product/fonts ] || [ -d $MODPATH/system/product/fonts ] || [ -d $MODPATH/system/fonts ]; then
    font_reboot_menu
  else
    retry
  fi
}

random_shortcut() {
  choice=""
  choice2=""
  choice3=""
  FRANDOM="$(( ( RANDOM % 228 )  + 1 ))"
  echo -e "${R}Applying Random Font...${N}"
  if [ -e $MODPATH/random.txt ]; then
    truncate -s 0 $MODPATH/random.txt
  else
    touch $MODPATH/random.txt
  fi
  echo $FRANDOM >> $MODPATH/random.txt
  choice="$(cat $MODPATH/random.txt)"
  choice3="$(sed -n ${choice}p $FCDIR/fonts-list.txt)" 
  choice2="$(echo $choice3 | sed 's/.zip//')"
#    choice2="$(sed -n ${choice}p $FCDIR/fonts-list.txt | tr -d '.zip')"
  $SLEEP 2
  if [ -d $MODPATH/system ] || [ -d $MODPATH/product ]; then
    for i in $MODPATH/*/*/*Emoji*.ttf; do
      if [ -e $i ]; then
        mv -f $i $MODPATH
      fi
    done
  fi
  if [ -d $MODPATH/system/product ]; then
    for i in $MODPATH/*/*/*/*Emoji*.ttf; do
      if [ -e $i ]; then
        mv -f $i $MODPATH
      fi
    done
  fi
  if [ -d $MODPATH/system/fonts ]; then
    rm -rf $MODPATH/system/fonts
  fi
  if [ -d $MODPATH/product/fonts ]; then
    rm -rf $MODPATH/product/fonts
  fi
  if [ -d $MODPATH/system/product/fonts ]; then
    rm -rf $MODPATH/system/product/fonts
  fi
  [ -e $FCDIR/Fonts/$choice2.zip ] || $CURL -k -o "$FCDIR/Fonts/$choice2.zip" https://john-fawkes.com/Downloads/haha/$choice2.zip
  mkdir -p $FCDIR/Fonts/$choice2
  unzip -o "$FCDIR/Fonts/$choice2.zip" -d $FCDIR/Fonts/$choice2
  if [ -d $MIRROR/product/fonts ]; then
    mkdir -p $MODPATH/product/fonts
    cp -f $FCDIR/Fonts/$choice2/* $MODPATH/product/fonts
  fi
  if [ -d $MIRROR/system/product/fonts ]; then
    mkdir -p $MODPATH/system/product/fonts
    cp -f $FCDIR/Fonts/$choice2/* $MODPATH/system/product/fonts
  fi
  if [ -d $MIRROR/system/fonts ]; then
    mkdir -p $MODPATH/system/fonts
    cp -f $FCDIR/Fonts/$choice2/* $MODPATH/system/fonts
  fi
  for i in $MODPATH/*Emoji*.ttf; do
    if [ -e $i ]; then
      cp -f $i $MODPATH/product/fonts
      cp -f $i $MODPATH/system/product/fonts
      mv -f $i $MODPATH/system/fonts
    fi
  done
  lg_device
  pixel
  samsung_device
  oxygen
  android10
  if [ -d $FCDIR/Fonts/$choice2 ]; then
    rm -rf $FCDIR/Fonts/$choice2
  fi
  if [ -d $MIRROR/product/fonts ]; then
    set_perm_recursive $MODPATH/product/fonts 0 0 0755 0644
  fi
  if [ -d $MIRROR/system/product/fonts ]; then
    set_perm_recursive $MODPATH/system/product/fonts 0 0 0755 0644
  fi
  if [ -d $MIRROR/system/fonts ]; then
    set_perm_recursive $MODPATH/system/fonts 0 0 0755 0644
  fi
  [ -f $CFONT ] || touch $CFONT
  truncate -s 0 $CFONT
  echo "CURRENT=$choice2" >>$CFONT
  if [ -d $MODPATH/product/fonts ]; then
    is_not_empty_font $MODPATH/product/fonts
  elif [ -d $MODPATH/system/product/fonts ]; then
    is_not_empty_font $MODPATH/system/product/fonts
  elif [ -d $MODPATH/system/fonts ]; then
    is_not_empty_font $MODPATH/system/fonts
  fi
}

clear_shortcut() {
  CHECK=$(du -hs $FCDIR/Fonts/* | cut -c-4)
  CHECK2=$(du -hs $FCDIR/Emojis/* | cut -c-4)
  if is_not_empty $FCDIR/Fonts/*; then
    echo -e "${V}Checking Space...${N}"
    $SLEEP 3
    echo -e "${G}$CHECK${N}"
    echo -e "${Y}Your Font Zips are Taking Up $CHECK Space${N}"
    echo -e "${R}Deleting Font Zips${N}"
    for i in $FCDIR/Fonts/*.zip; do
      rm -f $i
    done
    for i in $FCDIR/Fonts/*/*.zip; do
      rm -rf $i
    done
  else
      echo -e "[-] No Font Zips Found"
  fi
  if is_not_empty $FCDIR/Emojis/*; then
    echo -e "${V}Checking Emoji Space...${N}"
    $SLEEP 3
    echo "${G}$CHECK2${N}"
    echo "${Y}Your Emoji Zips are Taking Up $CHECK2 Space${N}"
    echo "${R}Deleting Emoji Zips${N}"
    for i in $FCDIR/Emojis/*.zip; do
      rm -f $i
    done
    for i in $FCDIR/Emojis/*/*.zip; do
      rm -rf $i
    done
      echo -e "${B}Zip Space Cleared"${N}
  else
      echo -e "${R}[-] No Emoji Zips Found${N}"
  fi
}

apply_custom_emoji_shortcut() {
  echo -e "${G}Applying Custom Emoji Please Wait...${N}"
  $SLEEP 2
  cusemojichoice="$(grep -w $choice $MODPATH/customemojilist.txt | tr -d '[0-9]' | tr -d ' ')"
  if [ -d $MODPATH/system ] || [ -d $MODPATH/product ]; then
    for i in $MODPATH/*/*/*Emoji*.ttf; do
      if [ -e $i ]; then
        rm -f $i
      fi
    done
  fi
  if [ -d $MODPATH/system/product ]; then
    for i in $MODPATH/*/*/*/*Emoji*.ttf; do
      if [ -e $i ]; then
        rm -f $i
      fi
    done
  fi
  if [ -d $MIRROR/product/fonts ]; then
    mkdir -p $MODPATH/product/fonts
    cp -f $FCDIR/Emojis/Custom/$cusemojichoice/NotoColorEmoji.ttf $MODPATH/product/fonts
    if [ -f $MIRROR/product/fonts/SamsungColorEmoji.ttf ]; then
      cp -f $MODPATH/product/fonts/NotoColorEmoji.ttf $MODPATH/product/fonts/SamsungColorEmoji.ttf
    fi
    if [ -f $MIRROR/product/fonts/hTC_ColorEmoji.ttf ]; then
      cp -f $MODPATH/product/fonts/NotoColorEmoji.ttf $MODPATH/product/fonts/hTC_ColorEmoji.ttf
    fi
    set_perm_recursive $MODPATH/product/fonts 0 0 0755 0644
  fi
  if [ -d $MIRROR/system/product/fonts ]; then
    mkdir -p $MODPATH/system/product/fonts
    cp -f $FCDIR/Emojis/Custom/$cusemojichoice/NotoColorEmoji.ttf $MODPATH/system/product/fonts
    if [ -f $MIRROR/system/product/fonts/SamsungColorEmoji.ttf ]; then
      cp -f $MODPATH/system/product/fonts/NotoColorEmoji.ttf $MODPATH/system/product/fonts/SamsungColorEmoji.ttf
    fi
    if [ -f $MIRROR/system/product/fonts/hTC_ColorEmoji.ttf ]; then
      cp -f $MODPATH/system/product/fonts/NotoColorEmoji.ttf $MODPATH/system/product/fonts/hTC_ColorEmoji.ttf
    fi
    set_perm_recursive $MODPATH/system/product/fonts 0 0 0755 0644
  fi
  if [ -d $MIRROR/system/fonts ]; then
    mkdir -p $MODPATH/system/fonts
    cp -f $FCDIR/Emojis/Custom/$cusemojichoice/NotoColorEmoji.ttf $MODPATH/system/fonts
    if [ -f $MIRROR/system/fonts/SamsungColorEmoji.ttf ]; then
      cp -f $MODPATH/system/fonts/NotoColorEmoji.ttf $MODPATH/system/fonts/SamsungColorEmoji.ttf
    fi
    if [ -f $MIRROR/system/fonts/hTC_ColorEmoji.ttf ]; then
      cp -f $MODPATH/system/fonts/NotoColorEmoji.ttf $MODPATH/system/fonts/hTC_ColorEmoji.ttf
    fi
    set_perm_recursive $MODPATH/system/fonts 0 0 0755 0644
  fi
  [ -f $CEMOJI ] || touch $CEMOJI
  truncate -s 0 $CEMOJI
  echo "CURRENT=$cusemojichoice" >>$CEMOJI
  if [ -e $MODPATH/product/fonts/NotoColorEmoji.ttf ] || [ -e $MODPATH/system/product/fonts/NotoColorEmoji.ttf ] || [ -e $MODPATH/system/fonts/NotoColorEmoji.ttf ]; then
    emoji_reboot_menu
  else
    echo -e "${R}[!] Emoji WAS NOT APPLIED [!]${N}"
    echo -e "${R}[!] PLEASE TRY AGAIN [!]${N}"
    $SLEEP 3
  fi
}

apply_emoji_shortcut() {
  echo -e "${Y}Applying Emoji. Please Wait...${N}"
  $SLEEP 2
  emojichoice="$(grep -w $choice $MODPATH/emojilist.txt | tr -d '[0-9]' | tr -d ' ')"
  if [ -d $MODPATH/system ] || [ -d $MODPATH/product ]; then
    for i in $MODPATH/*/*/*Emoji*.ttf; do
      if [ -e $i ]; then
        rm -f $i
      fi
    done
  fi
  if [ -d $MODPATH/system/product ]; then
    for i in $MODPATH/*/*/*/*Emoji*.ttf; do
      if [ -e $i ]; then
        rm -f $i
      fi
    done
  fi
  [ -e $FCDIR/Emojis/$emojichoice.zip ] || $CURL -k -o "$FCDIR/Emojis/$emojichoice.zip" https://john-fawkes.com/Downloads/haha/emoji/$emojichoice.zip
  mkdir -p $FCDIR/Emojis/$emojichoice
  unzip -o "$FCDIR/Emojis/$emojichoice.zip" -d $FCDIR/Emojis/$emojichoice
  if [ -d $MIRROR/product/fonts ]; then
    mkdir -p $MODPATH/product/fonts
    cp -f $FCDIR/Emojis/$emojichoice/NotoColorEmoji.ttf $MODPATH/product/fonts
    if [ -f $MIRROR/product/fonts/SamsungColorEmoji.ttf ]; then
      cp -f $MODPATH/product/fonts/NotoColorEmoji.ttf $MODPATH/product/fonts/SamsungColorEmoji.ttf
    fi
    if [ -f $MIRROR/product/fonts/hTC_ColorEmoji.ttf ]; then
      cp -f $MODPATH/product/fonts/NotoColorEmoji.ttf $MODPATH/product/fonts/hTC_ColorEmoji.ttf
    fi
    set_perm_recursive $MODPATH/product/fonts 0 0 0755 0644
  fi
  if [ -d $MIRROR/system/product/fonts ]; then
    mkdir -p $MODPATH/system/product/fonts
    cp -f $FCDIR/Emojis/$emojichoice/NotoColorEmoji.ttf $MODPATH/system/product/fonts
    if [ -f $MIRROR/system/product/fonts/SamsungColorEmoji.ttf ]; then
      cp -f $MODPATH/system/product/fonts/NotoColorEmoji.ttf $MODPATH/system/product/fonts/SamsungColorEmoji.ttf
    fi
    if [ -f $MIRROR/system/product/fonts/hTC_ColorEmoji.ttf ]; then
      cp -f $MODPATH/system/product/fonts/NotoColorEmoji.ttf $MODPATH/system/product/fonts/fonts/hTC_ColorEmoji.ttf
    fi
    set_perm_recursive $MODPATH/system/product/fonts 0 0 0755 0644
  fi
  if [ -d $MIRROR/system/fonts ]; then
    mkdir -p $MODPATH/system/fonts
    cp -f $FCDIR/Emojis/$emojichoice/NotoColorEmoji.ttf $MODPATH/system/fonts